/home/anna/Documents/benchmark/test_fegrow/inputs/ligand.pdb
     RDKit          3D

 41 42  0  0  0  0  0  0  0  0999 V2000
   -6.7680   -6.0290  -15.4960 C   0  0  0  0  0  0  0  0  0  0  0  0
   -7.3630   -4.7560  -15.5870 C   0  0  0  0  0  0  0  0  0  0  0  0
   -6.5920   -3.6260  -15.8250 C   0  0  0  0  0  0  0  0  0  0  0  0
   -8.7620   -9.1860  -16.0280 C   0  0  0  0  0  0  0  0  0  0  0  0
   -7.6480   -7.1690  -15.1630 C   0  0  0  0  0  0  0  0  0  0  0  0
   -9.5760   -9.5140  -14.9230 C   0  0  0  0  0  0  0  0  0  0  0  0
  -10.4480  -10.5960  -15.0330 C   0  0  0  0  0  0  0  0  0  0  0  0
   -5.3790   -6.1530  -15.6880 C   0  0  0  0  0  0  0  0  0  0  0  0
   -5.2250   -3.7570  -16.0030 C   0  0  0  0  0  0  0  0  0  0  0  0
   -4.6220   -5.0120  -15.9350 C   0  0  0  0  0  0  0  0  0  0  0  0
   -9.0780   -4.6020  -15.4470 Cl  0  0  0  0  0  0  0  0  0  0  0  0
   -8.1400   -7.2160  -14.0310 O   0  0  0  0  0  0  0  0  0  0  0  0
   -7.9150   -8.0780  -16.1160 N   0  0  0  0  0  0  0  0  0  0  0  0
  -10.4840  -11.3230  -16.1490 N   0  0  0  0  0  0  0  0  0  0  0  0
   -9.7280  -11.0610  -17.2160 C   0  0  0  0  0  0  0  0  0  0  0  0
   -8.8640   -9.9630  -17.1810 C   0  0  0  0  0  0  0  0  0  0  0  0
   -9.8320  -11.8770  -18.3640 N   0  0  0  0  0  0  0  0  0  0  0  0
   -8.8750  -11.9800  -19.3360 C   0  0  0  0  0  0  0  0  0  0  0  0
   -7.8420  -11.3390  -19.2710 O   0  0  0  0  0  0  0  0  0  0  0  0
   -4.5810   -7.6960  -15.6770 Cl  0  0  0  0  0  0  0  0  0  0  0  0
   -7.0347   -2.6948  -15.8689 H   0  0  0  0  0  0  0  0  0  0  0  0
   -9.5268   -8.9640  -14.0511 H   0  0  0  0  0  0  0  0  0  0  0  0
  -11.0697  -10.8355  -14.2449 H   0  0  0  0  0  0  0  0  0  0  0  0
   -4.6492   -2.9206  -16.1871 H   0  0  0  0  0  0  0  0  0  0  0  0
   -3.6022   -5.0958  -16.0694 H   0  0  0  0  0  0  0  0  0  0  0  0
   -7.4596   -7.9478  -16.9791 H   0  0  0  0  0  0  0  0  0  0  0  0
   -8.2994   -9.7265  -18.0118 H   0  0  0  0  0  0  0  0  0  0  0  0
  -10.6525  -12.4102  -18.4726 H   0  0  0  0  0  0  0  0  0  0  0  0
   -9.0159  -12.5479  -20.0567 C   0  0  0  0  0  0  0  0  0  0  0  0
   -8.7270  -13.3206  -20.0358 C   0  0  0  0  0  0  0  0  0  0  0  0
   -9.4287  -12.2801  -20.7189 C   0  0  0  0  0  0  0  0  0  0  0  0
   -8.6019  -12.8160  -19.3953 C   0  0  0  0  0  0  0  0  0  0  0  0
   -8.2616  -13.4641  -19.1716 H   0  0  0  0  0  0  0  0  0  0  0  0
   -8.5504  -14.1678  -20.3044 H   0  0  0  0  0  0  0  0  0  0  0  0
   -8.9688  -13.6701  -20.8037 H   0  0  0  0  0  0  0  0  0  0  0  0
   -9.5689  -12.7976  -21.4005 H   0  0  0  0  0  0  0  0  0  0  0  0
   -9.8781  -11.9027  -21.3728 H   0  0  0  0  0  0  0  0  0  0  0  0
   -9.6228  -11.4557  -20.5033 H   0  0  0  0  0  0  0  0  0  0  0  0
   -8.5275  -12.1648  -18.7493 H   0  0  0  0  0  0  0  0  0  0  0  0
   -8.2006  -12.8541  -18.5852 H   0  0  0  0  0  0  0  0  0  0  0  0
   -8.3660  -13.7488  -19.6040 H   0  0  0  0  0  0  0  0  0  0  0  0
  1  5  1  0
  2  1  2  0
  2 11  1  0
  3  2  1  0
  3 21  1  0
  4  6  2  0
  5 12  2  0
  6 22  1  0
  7  6  1  0
  7 23  1  0
  8 20  1  0
  8  1  1  0
  9 10  1  0
  9  3  2  0
  9 24  1  0
 10  8  2  0
 10 25  1  0
 13  4  1  0
 13  5  1  0
 13 26  1  0
 14  7  2  0
 15 16  2  0
 15 14  1  0
 16  4  1  0
 16 27  1  0
 17 15  1  0
 17 28  1  0
 18 19  2  0
 18 17  1  0
 29 30  1  0
 29 31  1  0
 29 32  1  0
 30 33  1  0
 30 34  1  0
 30 35  1  0
 31 36  1  0
 31 37  1  0
 31 38  1  0
 32 39  1  0
 32 40  1  0
 32 41  1  0
 18 29  1  0
M  END
$$$$