/home/anna/Documents/benchmark/test_fegrow/inputs/ligand.pdb
     RDKit          3D

 38 40  0  0  0  0  0  0  0  0999 V2000
   -6.8010   -6.0336  -15.4719 C   0  0  0  0  0  0  0  0  0  0  0  0
   -7.3925   -4.7639  -15.5610 C   0  0  0  0  0  0  0  0  0  0  0  0
   -6.6024   -3.6424  -15.8220 C   0  0  0  0  0  0  0  0  0  0  0  0
   -8.7426   -9.2014  -16.0855 C   0  0  0  0  0  0  0  0  0  0  0  0
   -7.6382   -7.1960  -15.1568 C   0  0  0  0  0  0  0  0  0  0  0  0
   -9.5496   -9.5204  -15.0143 C   0  0  0  0  0  0  0  0  0  0  0  0
  -10.4189  -10.6078  -15.1186 C   0  0  0  0  0  0  0  0  0  0  0  0
   -5.4160   -6.1632  -15.6883 C   0  0  0  0  0  0  0  0  0  0  0  0
   -5.2213   -3.7623  -15.9973 C   0  0  0  0  0  0  0  0  0  0  0  0
   -4.6334   -5.0283  -15.9379 C   0  0  0  0  0  0  0  0  0  0  0  0
   -9.1216   -4.5652  -15.3820 Cl  0  0  0  0  0  0  0  0  0  0  0  0
   -8.1761   -7.2857  -14.0622 O   0  0  0  0  0  0  0  0  0  0  0  0
   -7.8652   -8.1447  -16.1301 N   0  0  0  0  0  0  0  0  0  0  0  0
  -10.4924  -11.3632  -16.2255 N   0  0  0  0  0  0  0  0  0  0  0  0
   -9.7089  -11.0391  -17.2446 C   0  0  0  0  0  0  0  0  0  0  0  0
   -8.8350   -9.9729  -17.2122 C   0  0  0  0  0  0  0  0  0  0  0  0
   -9.8476  -11.8336  -18.3428 N   0  0  0  0  0  0  0  0  0  0  0  0
   -8.8919  -11.9497  -19.3223 C   0  0  0  0  0  0  0  0  0  0  0  0
   -7.8459  -11.3307  -19.2119 O   0  0  0  0  0  0  0  0  0  0  0  0
   -4.6476   -7.7306  -15.6414 Cl  0  0  0  0  0  0  0  0  0  0  0  0
   -7.0773   -2.6709  -15.8874 H   0  0  0  0  0  0  0  0  0  0  0  0
   -9.5244   -8.9426  -14.1059 H   0  0  0  0  0  0  0  0  0  0  0  0
  -11.0525  -10.8648  -14.2714 H   0  0  0  0  0  0  0  0  0  0  0  0
   -4.6117   -2.8798  -16.1777 H   0  0  0  0  0  0  0  0  0  0  0  0
   -3.5621   -5.1325  -16.0819 H   0  0  0  0  0  0  0  0  0  0  0  0
   -7.4392   -7.9707  -17.0264 H   0  0  0  0  0  0  0  0  0  0  0  0
   -8.2416   -9.7357  -18.0741 H   0  0  0  0  0  0  0  0  0  0  0  0
  -10.6773  -12.4127  -18.3714 H   0  0  0  0  0  0  0  0  0  0  0  0
   -9.0928  -12.8795  -20.5058 C   0  0  0  0  0  0  0  0  0  0  0  0
   -8.8648  -12.2340  -21.8750 C   0  0  0  0  0  0  0  0  0  0  0  0
   -7.9190  -13.8194  -20.8059 C   0  0  0  0  0  0  0  0  0  0  0  0
   -7.7130  -13.1135  -22.0686 N   0  0  0  0  0  0  0  0  0  0  0  0
  -10.0532  -13.3948  -20.4335 H   0  0  0  0  0  0  0  0  0  0  0  0
   -9.6785  -12.3848  -22.5991 H   0  0  0  0  0  0  0  0  0  0  0  0
   -8.5921  -11.1726  -21.8628 H   0  0  0  0  0  0  0  0  0  0  0  0
   -7.0665  -13.7728  -20.1150 H   0  0  0  0  0  0  0  0  0  0  0  0
   -8.1972  -14.8719  -20.9428 H   0  0  0  0  0  0  0  0  0  0  0  0
   -6.8481  -12.5722  -22.0512 H   0  0  0  0  0  0  0  0  0  0  0  0
  1  5  1  0
  2  1  2  0
  2 11  1  0
  3  2  1  0
  3 21  1  0
  4  6  2  0
  5 12  2  0
  6 22  1  0
  7  6  1  0
  7 23  1  0
  8 20  1  0
  8  1  1  0
  9 10  1  0
  9  3  2  0
  9 24  1  0
 10  8  2  0
 10 25  1  0
 13  4  1  0
 13  5  1  0
 13 26  1  0
 14  7  2  0
 15 16  2  0
 15 14  1  0
 16  4  1  0
 16 27  1  0
 17 15  1  0
 17 28  1  0
 18 19  2  0
 18 17  1  0
 30 32  1  0
 31 32  1  0
 29 30  1  0
 29 31  1  0
 29 33  1  0
 30 34  1  0
 30 35  1  0
 31 36  1  0
 31 37  1  0
 32 38  1  0
 18 29  1  0
M  END
$$$$