/home/anna/Documents/benchmark/test_fegrow/inputs/ligand.pdb
     RDKit          3D

 37 38  0  0  0  0  0  0  0  0999 V2000
   -6.8034   -6.0364  -15.4737 C   0  0  0  0  0  0  0  0  0  0  0  0
   -7.3971   -4.7639  -15.5601 C   0  0  0  0  0  0  0  0  0  0  0  0
   -6.6028   -3.6419  -15.8219 C   0  0  0  0  0  0  0  0  0  0  0  0
   -8.7430   -9.2137  -16.1014 C   0  0  0  0  0  0  0  0  0  0  0  0
   -7.6401   -7.2077  -15.1598 C   0  0  0  0  0  0  0  0  0  0  0  0
   -9.5493   -9.5296  -15.0346 C   0  0  0  0  0  0  0  0  0  0  0  0
  -10.4143  -10.6177  -15.1407 C   0  0  0  0  0  0  0  0  0  0  0  0
   -5.4155   -6.1641  -15.6902 C   0  0  0  0  0  0  0  0  0  0  0  0
   -5.2187   -3.7597  -15.9977 C   0  0  0  0  0  0  0  0  0  0  0  0
   -4.6301   -5.0276  -15.9396 C   0  0  0  0  0  0  0  0  0  0  0  0
   -9.1310   -4.5625  -15.3798 Cl  0  0  0  0  0  0  0  0  0  0  0  0
   -8.1808   -7.2962  -14.0662 O   0  0  0  0  0  0  0  0  0  0  0  0
   -7.8652   -8.1567  -16.1362 N   0  0  0  0  0  0  0  0  0  0  0  0
  -10.4901  -11.3766  -16.2451 N   0  0  0  0  0  0  0  0  0  0  0  0
   -9.7106  -11.0501  -17.2650 C   0  0  0  0  0  0  0  0  0  0  0  0
   -8.8329   -9.9830  -17.2310 C   0  0  0  0  0  0  0  0  0  0  0  0
   -9.8501  -11.8371  -18.3631 N   0  0  0  0  0  0  0  0  0  0  0  0
   -8.8859  -11.9167  -19.3255 C   0  0  0  0  0  0  0  0  0  0  0  0
   -7.8355  -11.3103  -19.2194 O   0  0  0  0  0  0  0  0  0  0  0  0
   -4.6506   -7.7359  -15.6388 Cl  0  0  0  0  0  0  0  0  0  0  0  0
   -7.0815   -2.6721  -15.8887 H   0  0  0  0  0  0  0  0  0  0  0  0
   -9.5236   -8.9499  -14.1262 H   0  0  0  0  0  0  0  0  0  0  0  0
  -11.0432  -10.8685  -14.2910 H   0  0  0  0  0  0  0  0  0  0  0  0
   -4.6080   -2.8757  -16.1766 H   0  0  0  0  0  0  0  0  0  0  0  0
   -3.5581   -5.1361  -16.0822 H   0  0  0  0  0  0  0  0  0  0  0  0
   -7.4461   -7.9821  -17.0339 H   0  0  0  0  0  0  0  0  0  0  0  0
   -8.2320   -9.7389  -18.0884 H   0  0  0  0  0  0  0  0  0  0  0  0
  -10.6616  -12.4389  -18.4036 H   0  0  0  0  0  0  0  0  0  0  0  0
   -9.0836  -12.8159  -20.3443 N   0  0  0  0  0  0  0  0  0  0  0  0
   -8.1640  -12.9948  -21.4839 C   0  0  0  0  0  0  0  0  0  0  0  0
   -8.2008  -11.7940  -22.4304 C   0  0  0  0  0  0  0  0  0  0  0  0
   -9.9883  -13.2784  -20.3426 H   0  0  0  0  0  0  0  0  0  0  0  0
   -8.4327  -13.8948  -22.0523 H   0  0  0  0  0  0  0  0  0  0  0  0
   -7.1303  -13.1330  -21.1337 H   0  0  0  0  0  0  0  0  0  0  0  0
   -9.2068  -11.6648  -22.8473 H   0  0  0  0  0  0  0  0  0  0  0  0
   -7.9084  -10.8824  -21.8964 H   0  0  0  0  0  0  0  0  0  0  0  0
   -7.5028  -11.9462  -23.2648 H   0  0  0  0  0  0  0  0  0  0  0  0
  1  5  1  0
  2  1  2  0
  2 11  1  0
  3  2  1  0
  3 21  1  0
  4  6  2  0
  5 12  2  0
  6 22  1  0
  7  6  1  0
  7 23  1  0
  8 20  1  0
  8  1  1  0
  9 10  1  0
  9  3  2  0
  9 24  1  0
 10  8  2  0
 10 25  1  0
 13  4  1  0
 13  5  1  0
 13 26  1  0
 14  7  2  0
 15 16  2  0
 15 14  1  0
 16  4  1  0
 16 27  1  0
 17 15  1  0
 17 28  1  0
 18 19  2  0
 18 17  1  0
 29 30  1  0
 29 32  1  0
 30 31  1  0
 30 33  1  0
 30 34  1  0
 31 35  1  0
 31 36  1  0
 31 37  1  0
 18 29  1  0
M  END
$$$$