/home/anna/Documents/benchmark/test_fegrow/inputs/ligand.pdb
     RDKit          3D

 36 38  0  0  0  0  0  0  0  0999 V2000
   -6.7957   -6.0334  -15.4753 C   0  0  0  0  0  0  0  0  0  0  0  0
   -7.3897   -4.7638  -15.5668 C   0  0  0  0  0  0  0  0  0  0  0  0
   -6.5994   -3.6414  -15.8227 C   0  0  0  0  0  0  0  0  0  0  0  0
   -8.7555   -9.1961  -16.0673 C   0  0  0  0  0  0  0  0  0  0  0  0
   -7.6356   -7.1916  -15.1524 C   0  0  0  0  0  0  0  0  0  0  0  0
   -9.5551   -9.5156  -14.9898 C   0  0  0  0  0  0  0  0  0  0  0  0
  -10.4244  -10.6010  -15.0930 C   0  0  0  0  0  0  0  0  0  0  0  0
   -5.4081   -6.1624  -15.6909 C   0  0  0  0  0  0  0  0  0  0  0  0
   -5.2194   -3.7602  -15.9982 C   0  0  0  0  0  0  0  0  0  0  0  0
   -4.6298   -5.0243  -15.9384 C   0  0  0  0  0  0  0  0  0  0  0  0
   -9.1226   -4.5711  -15.3978 Cl  0  0  0  0  0  0  0  0  0  0  0  0
   -8.1702   -7.2710  -14.0528 O   0  0  0  0  0  0  0  0  0  0  0  0
   -7.8797   -8.1383  -16.1220 N   0  0  0  0  0  0  0  0  0  0  0  0
  -10.5058  -11.3575  -16.1959 N   0  0  0  0  0  0  0  0  0  0  0  0
   -9.7259  -11.0367  -17.2200 C   0  0  0  0  0  0  0  0  0  0  0  0
   -8.8521   -9.9680  -17.1919 C   0  0  0  0  0  0  0  0  0  0  0  0
   -9.8686  -11.8295  -18.3159 N   0  0  0  0  0  0  0  0  0  0  0  0
   -8.9086  -11.9338  -19.2919 C   0  0  0  0  0  0  0  0  0  0  0  0
   -7.8606  -11.3183  -19.1592 O   0  0  0  0  0  0  0  0  0  0  0  0
   -4.6303   -7.7275  -15.6482 Cl  0  0  0  0  0  0  0  0  0  0  0  0
   -7.0736   -2.6686  -15.8844 H   0  0  0  0  0  0  0  0  0  0  0  0
   -9.5196   -8.9333  -14.0842 H   0  0  0  0  0  0  0  0  0  0  0  0
  -11.0603  -10.8532  -14.2462 H   0  0  0  0  0  0  0  0  0  0  0  0
   -4.6117   -2.8769  -16.1819 H   0  0  0  0  0  0  0  0  0  0  0  0
   -3.5575   -5.1254  -16.0805 H   0  0  0  0  0  0  0  0  0  0  0  0
   -7.4510   -7.9747  -17.0230 H   0  0  0  0  0  0  0  0  0  0  0  0
   -8.2567   -9.7206  -18.0558 H   0  0  0  0  0  0  0  0  0  0  0  0
  -10.6993  -12.4049  -18.3642 H   0  0  0  0  0  0  0  0  0  0  0  0
   -9.1027  -12.8804  -20.4887 C   0  0  0  0  0  0  0  0  0  0  0  0
   -8.5438  -12.4725  -21.8650 C   0  0  0  0  0  0  0  0  0  0  0  0
   -7.8907  -13.6182  -21.0911 C   0  0  0  0  0  0  0  0  0  0  0  0
  -10.0643  -13.4056  -20.4696 H   0  0  0  0  0  0  0  0  0  0  0  0
   -7.9987  -11.5224  -21.9321 H   0  0  0  0  0  0  0  0  0  0  0  0
   -9.1166  -12.7248  -22.7675 H   0  0  0  0  0  0  0  0  0  0  0  0
   -8.0233  -14.6339  -21.4854 H   0  0  0  0  0  0  0  0  0  0  0  0
   -6.9057  -13.4365  -20.6427 H   0  0  0  0  0  0  0  0  0  0  0  0
  1  5  1  0
  2  1  2  0
  2 11  1  0
  3  2  1  0
  3 21  1  0
  4  6  2  0
  5 12  2  0
  6 22  1  0
  7  6  1  0
  7 23  1  0
  8 20  1  0
  8  1  1  0
  9 10  1  0
  9  3  2  0
  9 24  1  0
 10  8  2  0
 10 25  1  0
 13  4  1  0
 13  5  1  0
 13 26  1  0
 14  7  2  0
 15 16  2  0
 15 14  1  0
 16  4  1  0
 16 27  1  0
 17 15  1  0
 17 28  1  0
 18 19  2  0
 18 17  1  0
 31 30  1  0
 30 29  1  0
 29 31  1  0
 29 32  1  0
 30 33  1  0
 30 34  1  0
 31 35  1  0
 31 36  1  0
 18 29  1  0
M  END
$$$$