/home/anna/Documents/benchmark/test_fegrow/inputs/ligand.pdb
     RDKit          3D

 39 41  0  0  0  0  0  0  0  0999 V2000
   -6.7913   -6.0371  -15.4772 C   0  0  0  0  0  0  0  0  0  0  0  0
   -7.3875   -4.7670  -15.5751 C   0  0  0  0  0  0  0  0  0  0  0  0
   -6.5972   -3.6382  -15.8243 C   0  0  0  0  0  0  0  0  0  0  0  0
   -8.7704   -9.1867  -16.0528 C   0  0  0  0  0  0  0  0  0  0  0  0
   -7.6340   -7.1859  -15.1425 C   0  0  0  0  0  0  0  0  0  0  0  0
   -9.5611   -9.5171  -14.9659 C   0  0  0  0  0  0  0  0  0  0  0  0
  -10.4284  -10.6085  -15.0853 C   0  0  0  0  0  0  0  0  0  0  0  0
   -5.4010   -6.1659  -15.6944 C   0  0  0  0  0  0  0  0  0  0  0  0
   -5.2151   -3.7564  -15.9986 C   0  0  0  0  0  0  0  0  0  0  0  0
   -4.6230   -5.0221  -15.9385 C   0  0  0  0  0  0  0  0  0  0  0  0
   -9.1235   -4.5795  -15.4221 Cl  0  0  0  0  0  0  0  0  0  0  0  0
   -8.1579   -7.2426  -14.0362 O   0  0  0  0  0  0  0  0  0  0  0  0
   -7.8969   -8.1220  -16.1174 N   0  0  0  0  0  0  0  0  0  0  0  0
  -10.5117  -11.3673  -16.1941 N   0  0  0  0  0  0  0  0  0  0  0  0
   -9.7194  -11.0502  -17.2149 C   0  0  0  0  0  0  0  0  0  0  0  0
   -8.8551   -9.9671  -17.1817 C   0  0  0  0  0  0  0  0  0  0  0  0
   -9.8414  -11.8465  -18.3229 N   0  0  0  0  0  0  0  0  0  0  0  0
   -8.8925  -11.9462  -19.3072 C   0  0  0  0  0  0  0  0  0  0  0  0
   -7.8485  -11.3190  -19.2069 O   0  0  0  0  0  0  0  0  0  0  0  0
   -4.6019   -7.7222  -15.6596 Cl  0  0  0  0  0  0  0  0  0  0  0  0
   -7.0678   -2.6604  -15.8790 H   0  0  0  0  0  0  0  0  0  0  0  0
   -9.5204   -8.9327  -14.0517 H   0  0  0  0  0  0  0  0  0  0  0  0
  -11.0662  -10.8422  -14.2368 H   0  0  0  0  0  0  0  0  0  0  0  0
   -4.6104   -2.8693  -16.1902 H   0  0  0  0  0  0  0  0  0  0  0  0
   -3.5469   -5.1128  -16.0787 H   0  0  0  0  0  0  0  0  0  0  0  0
   -7.4575   -7.9664  -17.0175 H   0  0  0  0  0  0  0  0  0  0  0  0
   -8.2645   -9.7190  -18.0534 H   0  0  0  0  0  0  0  0  0  0  0  0
  -10.6828  -12.4029  -18.4026 H   0  0  0  0  0  0  0  0  0  0  0  0
   -9.1021  -12.8861  -20.5046 C   0  0  0  0  0  0  0  0  0  0  0  0
   -7.9445  -13.8429  -20.8199 C   0  0  0  0  0  0  0  0  0  0  0  0
   -8.9003  -12.2430  -21.8786 C   0  0  0  0  0  0  0  0  0  0  0  0
   -7.7341  -13.1685  -22.1640 C   0  0  0  0  0  0  0  0  0  0  0  0
  -10.0579  -13.4111  -20.4405 H   0  0  0  0  0  0  0  0  0  0  0  0
   -7.0859  -13.7546  -20.1520 H   0  0  0  0  0  0  0  0  0  0  0  0
   -8.2227  -14.8973  -20.8960 H   0  0  0  0  0  0  0  0  0  0  0  0
   -9.7418  -12.3511  -22.5704 H   0  0  0  0  0  0  0  0  0  0  0  0
   -8.5995  -11.1969  -21.8428 H   0  0  0  0  0  0  0  0  0  0  0  0
   -6.7739  -12.6543  -22.2621 H   0  0  0  0  0  0  0  0  0  0  0  0
   -7.8829  -13.8193  -23.0264 H   0  0  0  0  0  0  0  0  0  0  0  0
  1  5  1  0
  2  1  2  0
  2 11  1  0
  3  2  1  0
  3 21  1  0
  4  6  2  0
  5 12  2  0
  6 22  1  0
  7  6  1  0
  7 23  1  0
  8 20  1  0
  8  1  1  0
  9 10  1  0
  9  3  2  0
  9 24  1  0
 10  8  2  0
 10 25  1  0
 13  4  1  0
 13  5  1  0
 13 26  1  0
 14  7  2  0
 15 16  2  0
 15 14  1  0
 16  4  1  0
 16 27  1  0
 17 15  1  0
 17 28  1  0
 18 19  2  0
 18 17  1  0
 30 32  1  0
 31 32  1  0
 29 30  1  0
 29 31  1  0
 29 33  1  0
 30 34  1  0
 30 35  1  0
 31 36  1  0
 31 37  1  0
 32 38  1  0
 32 39  1  0
 18 29  1  0
M  END
$$$$